TCC/Teste_1/Biblioteca/LineCodes.dss
New LineCode.Indeterminado_1  nphases=1 BaseFreq=60  R1=0.001  X1=0.001 Units=km normamps=0
New LineCode.Indeterminado_2  nphases=2 BaseFreq=60  R1=0.001  X1=0.001 Units=km normamps=0
New LineCode.Indeterminado_3  nphases=3 BaseFreq=60  R1=0.001  X1=0.001 Units=km normamps=0
New LineCode.N�oInformado_1  nphases=1 BaseFreq=60  R1=0.001  X1=0.001 Units=km normamps=0
New LineCode.N�oInformado_2  nphases=2 BaseFreq=60  R1=0.001  X1=0.001 Units=km normamps=0
New LineCode.N�oInformado_3  nphases=3 BaseFreq=60  R1=0.001  X1=0.001 Units=km normamps=0
New LineCode.0_1  nphases=1 BaseFreq=60  R1=0.001  X1=0.001 Units=km normamps=0
New LineCode.0_2  nphases=2 BaseFreq=60  R1=0.001  X1=0.001 Units=km normamps=0
New LineCode.0_3  nphases=3 BaseFreq=60  R1=0.001  X1=0.001 Units=km normamps=0
New LineCode.1#1/0CAA_1  nphases=1 BaseFreq=60  R1=0.691  X1=1.038 Units=km normamps=195
New LineCode.1#1/0CAA_2  nphases=2 BaseFreq=60  R1=0.691  X1=1.038 Units=km normamps=195
New LineCode.1#1/0CAA_3  nphases=3 BaseFreq=60  R1=0.691  X1=1.038 Units=km normamps=195
New LineCode.1#1/0CC_1  nphases=1 BaseFreq=60  R1=0.691  X1=1.038 Units=km normamps=195
New LineCode.1#1/0CC_2  nphases=2 BaseFreq=60  R1=0.691  X1=1.038 Units=km normamps=195
New LineCode.1#1/0CC_3  nphases=3 BaseFreq=60  R1=0.691  X1=1.038 Units=km normamps=195
New LineCode.1#16XLPE_1  nphases=1 BaseFreq=60  R1=1.91  X1=0.584610701754386 Units=km normamps=59
New LineCode.1#16XLPE_2  nphases=2 BaseFreq=60  R1=1.91  X1=0.584610701754386 Units=km normamps=59
New LineCode.1#16XLPE_3  nphases=3 BaseFreq=60  R1=1.91  X1=0.584610701754386 Units=km normamps=59
New LineCode.1#2CA_1  nphases=1 BaseFreq=60  R1=0.963  X1=0.987 Units=km normamps=152
New LineCode.1#2CA_2  nphases=2 BaseFreq=60  R1=0.963  X1=0.987 Units=km normamps=152
New LineCode.1#2CA_3  nphases=3 BaseFreq=60  R1=0.963  X1=0.987 Units=km normamps=152
New LineCode.2CA_1  nphases=1 BaseFreq=60  R1=0.963  X1=0.987 Units=km normamps=152
New LineCode.2CA_2  nphases=2 BaseFreq=60  R1=0.963  X1=0.987 Units=km normamps=152
New LineCode.2CA_3  nphases=3 BaseFreq=60  R1=0.963  X1=0.987 Units=km normamps=152
New LineCode.1#2CC_1  nphases=1 BaseFreq=60  R1=0.599  X1=0.472 Units=km normamps=226
New LineCode.1#2CC_2  nphases=2 BaseFreq=60  R1=0.599  X1=0.472 Units=km normamps=226
New LineCode.1#2CC_3  nphases=3 BaseFreq=60  R1=0.599  X1=0.472 Units=km normamps=226
New LineCode.1#2CAA_1  nphases=1 BaseFreq=60  R1=1.05  X1=1.044 Units=km normamps=150
New LineCode.1#2CAA_2  nphases=2 BaseFreq=60  R1=1.05  X1=1.044 Units=km normamps=150
New LineCode.1#2CAA_3  nphases=3 BaseFreq=60  R1=1.05  X1=1.044 Units=km normamps=150
New LineCode.1#35XLPE_1  nphases=1 BaseFreq=60  R1=0.869  X1=0.24757 Units=km normamps=129
New LineCode.1#35XLPE_2  nphases=2 BaseFreq=60  R1=0.869  X1=0.24757 Units=km normamps=129
New LineCode.1#35XLPE_3  nphases=3 BaseFreq=60  R1=0.869  X1=0.24757 Units=km normamps=129
New LineCode.1#4CA_1  nphases=1 BaseFreq=60  R1=1.529  X1=1.016 Units=km normamps=114
New LineCode.1#4CA_2  nphases=2 BaseFreq=60  R1=1.529  X1=1.016 Units=km normamps=114
New LineCode.1#4CA_3  nphases=3 BaseFreq=60  R1=1.529  X1=1.016 Units=km normamps=114
New LineCode.1#4CAA_1  nphases=1 BaseFreq=60  R1=1.597  X1=1.04 Units=km normamps=113
New LineCode.1#4CAA_2  nphases=2 BaseFreq=60  R1=1.597  X1=1.04 Units=km normamps=113
New LineCode.1#4CAA_3  nphases=3 BaseFreq=60  R1=1.597  X1=1.04 Units=km normamps=113
New LineCode.1#4CC_1  nphases=1 BaseFreq=60  R1=0.943  X1=1.009 Units=km normamps=163
New LineCode.1#4CC_2  nphases=2 BaseFreq=60  R1=0.943  X1=1.009 Units=km normamps=163
New LineCode.1#4CC_3  nphases=3 BaseFreq=60  R1=0.943  X1=1.009 Units=km normamps=163
New LineCode.1#5CBAL_1  nphases=1 BaseFreq=60  R1=0.943  X1=1.009 Units=km normamps=163
New LineCode.1#5CBAL_2  nphases=2 BaseFreq=60  R1=0.943  X1=1.009 Units=km normamps=163
New LineCode.1#5CBAL_3  nphases=3 BaseFreq=60  R1=0.943  X1=1.009 Units=km normamps=163
New LineCode.1#50XLPE_1  nphases=1 BaseFreq=60  R1=0.641  X1=0.584610701754386 Units=km normamps=171
New LineCode.1#50XLPE_2  nphases=2 BaseFreq=60  R1=0.641  X1=0.584610701754386 Units=km normamps=171
New LineCode.1#50XLPE_3  nphases=3 BaseFreq=60  R1=0.641  X1=0.584610701754386 Units=km normamps=171
New LineCode.1#70CACP_1  nphases=1 BaseFreq=60  R1=0.444  X1=0.23405 Units=km normamps=280
New LineCode.1#70CACP_2  nphases=2 BaseFreq=60  R1=0.444  X1=0.23405 Units=km normamps=280
New LineCode.1#70CACP_3  nphases=3 BaseFreq=60  R1=0.444  X1=0.23405 Units=km normamps=280
New LineCode.1#6CA_1  nphases=1 BaseFreq=60  R1=2.43  X1=1.022 Units=km normamps=80
New LineCode.1#6CA_2  nphases=2 BaseFreq=60  R1=2.43  X1=1.022 Units=km normamps=80
New LineCode.1#6CA_3  nphases=3 BaseFreq=60  R1=2.43  X1=1.022 Units=km normamps=80
New LineCode.1#6CAA_1  nphases=1 BaseFreq=60  R1=2.474  X1=1.049 Units=km normamps=80
New LineCode.1#6CAA_2  nphases=2 BaseFreq=60  R1=2.474  X1=1.049 Units=km normamps=80
New LineCode.1#6CAA_3  nphases=3 BaseFreq=60  R1=2.474  X1=1.049 Units=km normamps=80
New LineCode.1#6CC_1  nphases=1 BaseFreq=60  R1=1.498  X1=1.026 Units=km normamps=121
New LineCode.1#6CC_2  nphases=2 BaseFreq=60  R1=1.498  X1=1.026 Units=km normamps=121
New LineCode.1#6CC_3  nphases=3 BaseFreq=60  R1=1.498  X1=1.026 Units=km normamps=121
New LineCode.1#8CC_1  nphases=1 BaseFreq=60  R1=1.8  X1=2.026 Units=km normamps=121
New LineCode.1#8CC_2  nphases=2 BaseFreq=60  R1=1.8  X1=2.026 Units=km normamps=121
New LineCode.1#8CC_3  nphases=3 BaseFreq=60  R1=1.8  X1=2.026 Units=km normamps=121
New LineCode.1#70XLPE_1  nphases=1 BaseFreq=60  R1=0.571  X1=0.584610701754386 Units=km normamps=192
New LineCode.1#70XLPE_2  nphases=2 BaseFreq=60  R1=0.571  X1=0.584610701754386 Units=km normamps=192
New LineCode.1#70XLPE_3  nphases=3 BaseFreq=60  R1=0.571  X1=0.584610701754386 Units=km normamps=192
New LineCode.1#750CA_1  nphases=1 BaseFreq=60  R1=0.086  X1=0.88991 Units=km normamps=850
New LineCode.1#750CA_2  nphases=2 BaseFreq=60  R1=0.086  X1=0.88991 Units=km normamps=850
New LineCode.1#750CA_3  nphases=3 BaseFreq=60  R1=0.086  X1=0.88991 Units=km normamps=850
New LineCode.1#C11.9CAZ_1  nphases=1 BaseFreq=60  R1=16.13  X1=1.3 Units=km normamps=6
New LineCode.1#C11.9CAZ_2  nphases=2 BaseFreq=60  R1=16.13  X1=1.3 Units=km normamps=6
New LineCode.1#C11.9CAZ_3  nphases=3 BaseFreq=60  R1=16.13  X1=1.3 Units=km normamps=6
New LineCode.1#F3.09CAZ_1  nphases=1 BaseFreq=60  R1=25.6  X1=1.3 Units=km normamps=6
New LineCode.1#F3.09CAZ_2  nphases=2 BaseFreq=60  R1=25.6  X1=1.3 Units=km normamps=6
New LineCode.1#F3.09CAZ_3  nphases=3 BaseFreq=60  R1=25.6  X1=1.3 Units=km normamps=6
New LineCode.2#1/0CA_1  nphases=1 BaseFreq=60  R1=0.605  X1=0.448 Units=km normamps=203
New LineCode.2#1/0CA_2  nphases=2 BaseFreq=60  R1=0.605  X1=0.448 Units=km normamps=203
New LineCode.2#1/0CA_3  nphases=3 BaseFreq=60  R1=0.605  X1=0.448 Units=km normamps=203
New LineCode.2#1/0CC_1  nphases=1 BaseFreq=60  R1=0.605  X1=0.448 Units=km normamps=203
New LineCode.2#1/0CC_2  nphases=2 BaseFreq=60  R1=0.605  X1=0.448 Units=km normamps=203
New LineCode.2#1/0CC_3  nphases=3 BaseFreq=60  R1=0.605  X1=0.448 Units=km normamps=203
New LineCode.2#1/0CAA_1  nphases=1 BaseFreq=60  R1=0.691  X1=0.518 Units=km normamps=195
New LineCode.2#1/0CAA_2  nphases=2 BaseFreq=60  R1=0.691  X1=0.518 Units=km normamps=195
New LineCode.2#1/0CAA_3  nphases=3 BaseFreq=60  R1=0.691  X1=0.518 Units=km normamps=195
New LineCode.2#16XLPE_1  nphases=1 BaseFreq=60  R1=1.91  X1=0.584610701754386 Units=km normamps=59
New LineCode.2#16XLPE_2  nphases=2 BaseFreq=60  R1=1.91  X1=0.584610701754386 Units=km normamps=59
New LineCode.2#16XLPE_3  nphases=3 BaseFreq=60  R1=1.91  X1=0.584610701754386 Units=km normamps=59
New LineCode.2#35XLPE_1  nphases=1 BaseFreq=60  R1=0.869  X1=0.24757 Units=km normamps=129
New LineCode.2#35XLPE_2  nphases=2 BaseFreq=60  R1=0.869  X1=0.24757 Units=km normamps=129
New LineCode.2#35XLPE_3  nphases=3 BaseFreq=60  R1=0.869  X1=0.24757 Units=km normamps=129
New LineCode.2#50XLPE_1  nphases=1 BaseFreq=60  R1=0.641  X1=0.584610701754386 Units=km normamps=171
New LineCode.2#50XLPE_2  nphases=2 BaseFreq=60  R1=0.641  X1=0.584610701754386 Units=km normamps=171
New LineCode.2#50XLPE_3  nphases=3 BaseFreq=60  R1=0.641  X1=0.584610701754386 Units=km normamps=171
New LineCode.2#70XLPE_1  nphases=1 BaseFreq=60  R1=0.571  X1=0.584610701754386 Units=km normamps=192
New LineCode.2#70XLPE_2  nphases=2 BaseFreq=60  R1=0.571  X1=0.584610701754386 Units=km normamps=192
New LineCode.2#70XLPE_3  nphases=3 BaseFreq=60  R1=0.571  X1=0.584610701754386 Units=km normamps=192
New LineCode.2#70CACP_1  nphases=1 BaseFreq=60  R1=0.322  X1=0.2263 Units=km normamps=343
New LineCode.2#70CACP_2  nphases=2 BaseFreq=60  R1=0.322  X1=0.2263 Units=km normamps=343
New LineCode.2#70CACP_3  nphases=3 BaseFreq=60  R1=0.322  X1=0.2263 Units=km normamps=343
New LineCode.2#2CA_1  nphases=1 BaseFreq=60  R1=0.963  X1=0.467 Units=km normamps=152
New LineCode.2#2CA_2  nphases=2 BaseFreq=60  R1=0.963  X1=0.467 Units=km normamps=152
New LineCode.2#2CA_3  nphases=3 BaseFreq=60  R1=0.963  X1=0.467 Units=km normamps=152
New LineCode.2#2CAA_1  nphases=1 BaseFreq=60  R1=1.05  X1=0.524 Units=km normamps=150
New LineCode.2#2CAA_2  nphases=2 BaseFreq=60  R1=1.05  X1=0.524 Units=km normamps=150
New LineCode.2#2CAA_3  nphases=3 BaseFreq=60  R1=1.05  X1=0.524 Units=km normamps=150
New LineCode.2#2CC_1  nphases=1 BaseFreq=60  R1=0.599  X1=0.472 Units=km normamps=226
New LineCode.2#2CC_2  nphases=2 BaseFreq=60  R1=0.599  X1=0.472 Units=km normamps=226
New LineCode.2#2CC_3  nphases=3 BaseFreq=60  R1=0.599  X1=0.472 Units=km normamps=226
New LineCode.2#4CA_1  nphases=1 BaseFreq=60  R1=1.529  X1=0.496 Units=km normamps=114
New LineCode.2#4CA_2  nphases=2 BaseFreq=60  R1=1.529  X1=0.496 Units=km normamps=114
New LineCode.2#4CA_3  nphases=3 BaseFreq=60  R1=1.529  X1=0.496 Units=km normamps=114
New LineCode.2#4CAA_1  nphases=1 BaseFreq=60  R1=1.597  X1=0.52 Units=km normamps=113
New LineCode.2#4CAA_2  nphases=2 BaseFreq=60  R1=1.597  X1=0.52 Units=km normamps=113
New LineCode.2#4CAA_3  nphases=3 BaseFreq=60  R1=1.597  X1=0.52 Units=km normamps=113
New LineCode.2#4CC_1  nphases=1 BaseFreq=60  R1=0.943  X1=0.489 Units=km normamps=163
New LineCode.2#4CC_2  nphases=2 BaseFreq=60  R1=0.943  X1=0.489 Units=km normamps=163
New LineCode.2#4CC_3  nphases=3 BaseFreq=60  R1=0.943  X1=0.489 Units=km normamps=163
New LineCode.2#5CBAL_1  nphases=1 BaseFreq=60  R1=0.943  X1=1.009 Units=km normamps=163
New LineCode.2#5CBAL_2  nphases=2 BaseFreq=60  R1=0.943  X1=1.009 Units=km normamps=163
New LineCode.2#5CBAL_3  nphases=3 BaseFreq=60  R1=0.943  X1=1.009 Units=km normamps=163
New LineCode.2#6CA_1  nphases=1 BaseFreq=60  R1=2.43  X1=1.022 Units=km normamps=80
New LineCode.2#6CA_2  nphases=2 BaseFreq=60  R1=2.43  X1=1.022 Units=km normamps=80
New LineCode.2#6CA_3  nphases=3 BaseFreq=60  R1=2.43  X1=1.022 Units=km normamps=80
New LineCode.2#6CAA_1  nphases=1 BaseFreq=60  R1=2.474  X1=0.529 Units=km normamps=80
New LineCode.2#6CAA_2  nphases=2 BaseFreq=60  R1=2.474  X1=0.529 Units=km normamps=80
New LineCode.2#6CAA_3  nphases=3 BaseFreq=60  R1=2.474  X1=0.529 Units=km normamps=80
New LineCode.2#6CC_1  nphases=1 BaseFreq=60  R1=1.498  X1=0.506 Units=km normamps=121
New LineCode.2#6CC_2  nphases=2 BaseFreq=60  R1=1.498  X1=0.506 Units=km normamps=121
New LineCode.2#6CC_3  nphases=3 BaseFreq=60  R1=1.498  X1=0.506 Units=km normamps=121
New LineCode.2#C11.9CAZ_1  nphases=1 BaseFreq=60  R1=16.07  X1=0.84 Units=km normamps=6
New LineCode.2#C11.9CAZ_2  nphases=2 BaseFreq=60  R1=16.07  X1=0.84 Units=km normamps=6
New LineCode.2#C11.9CAZ_3  nphases=3 BaseFreq=60  R1=16.07  X1=0.84 Units=km normamps=6
New LineCode.2#F3.09CAZ_1  nphases=1 BaseFreq=60  R1=25.54  X1=0.84 Units=km normamps=6
New LineCode.2#F3.09CAZ_2  nphases=2 BaseFreq=60  R1=25.54  X1=0.84 Units=km normamps=6
New LineCode.2#F3.09CAZ_3  nphases=3 BaseFreq=60  R1=25.54  X1=0.84 Units=km normamps=6
New LineCode.1#1/0CA_1  nphases=1 BaseFreq=60  R1=0.605  X1=0.448 Units=km normamps=203
New LineCode.1#1/0CA_2  nphases=2 BaseFreq=60  R1=0.605  X1=0.448 Units=km normamps=203
New LineCode.1#1/0CA_3  nphases=3 BaseFreq=60  R1=0.605  X1=0.448 Units=km normamps=203
New LineCode.2#1/0CA_1  nphases=1 BaseFreq=60  R1=0.605  X1=0.448 Units=km normamps=203
New LineCode.2#1/0CA_2  nphases=2 BaseFreq=60  R1=0.605  X1=0.448 Units=km normamps=203
New LineCode.2#1/0CA_3  nphases=3 BaseFreq=60  R1=0.605  X1=0.448 Units=km normamps=203
New LineCode.3#1/0CA_1  nphases=1 BaseFreq=60  R1=0.605  X1=0.448 Units=km normamps=203
New LineCode.3#1/0CA_2  nphases=2 BaseFreq=60  R1=0.605  X1=0.448 Units=km normamps=203
New LineCode.3#1/0CA_3  nphases=3 BaseFreq=60  R1=0.605  X1=0.448 Units=km normamps=203
New LineCode.3#1/0CAA_1  nphases=1 BaseFreq=60  R1=0.691  X1=0.518 Units=km normamps=195
New LineCode.3#1/0CAA_2  nphases=2 BaseFreq=60  R1=0.691  X1=0.518 Units=km normamps=195
New LineCode.3#1/0CAA_3  nphases=3 BaseFreq=60  R1=0.691  X1=0.518 Units=km normamps=195
New LineCode.3#1/0CC_1  nphases=1 BaseFreq=60  R1=0.377  X1=0.45 Units=km normamps=305
New LineCode.3#1/0CC_2  nphases=2 BaseFreq=60  R1=0.377  X1=0.45 Units=km normamps=305
New LineCode.3#1/0CC_3  nphases=3 BaseFreq=60  R1=0.377  X1=0.45 Units=km normamps=305
New LineCode.3#120XLPE_1  nphases=1 BaseFreq=60  R1=0.254  X1=0.2551 Units=km normamps=262
New LineCode.3#120XLPE_2  nphases=2 BaseFreq=60  R1=0.254  X1=0.2551 Units=km normamps=262
New LineCode.3#120XLPE_3  nphases=3 BaseFreq=60  R1=0.254  X1=0.2551 Units=km normamps=262
New LineCode.3#120CACP_1  nphases=1 BaseFreq=60  R1=0.208  X1=0.2157 Units=km normamps=450
New LineCode.3#120CACP_2  nphases=2 BaseFreq=60  R1=0.208  X1=0.2157 Units=km normamps=450
New LineCode.3#120CACP_3  nphases=3 BaseFreq=60  R1=0.208  X1=0.2157 Units=km normamps=450
New LineCode.3#150CACP_1  nphases=1 BaseFreq=60  R1=0.208  X1=0.2157 Units=km normamps=450
New LineCode.3#150CACP_2  nphases=2 BaseFreq=60  R1=0.208  X1=0.2157 Units=km normamps=450
New LineCode.3#150CACP_3  nphases=3 BaseFreq=60  R1=0.208  X1=0.2157 Units=km normamps=450
New LineCode.3#16XLPE_1  nphases=1 BaseFreq=60  R1=1.91  X1=0.584610701754386 Units=km normamps=59
New LineCode.3#16XLPE_2  nphases=2 BaseFreq=60  R1=1.91  X1=0.584610701754386 Units=km normamps=59
New LineCode.3#16XLPE_3  nphases=3 BaseFreq=60  R1=1.91  X1=0.584610701754386 Units=km normamps=59
New LineCode.3#170CACP_1  nphases=1 BaseFreq=60  R1=0.322  X1=0.2263 Units=km normamps=365
New LineCode.3#170CACP_2  nphases=2 BaseFreq=60  R1=0.322  X1=0.2263 Units=km normamps=365
New LineCode.3#170CACP_3  nphases=3 BaseFreq=60  R1=0.322  X1=0.2263 Units=km normamps=365
New LineCode.3#185CACP_1  nphases=1 BaseFreq=60  R1=0.166  X1=0.20805 Units=km normamps=500
New LineCode.3#185CACP_2  nphases=2 BaseFreq=60  R1=0.166  X1=0.20805 Units=km normamps=500
New LineCode.3#185CACP_3  nphases=3 BaseFreq=60  R1=0.166  X1=0.20805 Units=km normamps=500
New LineCode.1#2/0CA_1  nphases=1 BaseFreq=60  R1=0.479  X1=0.441 Units=km normamps=235
New LineCode.1#2/0CA_2  nphases=2 BaseFreq=60  R1=0.479  X1=0.441 Units=km normamps=235
New LineCode.1#2/0CA_3  nphases=3 BaseFreq=60  R1=0.479  X1=0.441 Units=km normamps=235
New LineCode.2#2/0CA_1  nphases=1 BaseFreq=60  R1=0.479  X1=0.441 Units=km normamps=235
New LineCode.2#2/0CA_2  nphases=2 BaseFreq=60  R1=0.479  X1=0.441 Units=km normamps=235
New LineCode.2#2/0CA_3  nphases=3 BaseFreq=60  R1=0.479  X1=0.441 Units=km normamps=235
New LineCode.3#2/0CA_1  nphases=1 BaseFreq=60  R1=0.479  X1=0.441 Units=km normamps=235
New LineCode.3#2/0CA_2  nphases=2 BaseFreq=60  R1=0.479  X1=0.441 Units=km normamps=235
New LineCode.3#2/0CA_3  nphases=3 BaseFreq=60  R1=0.479  X1=0.441 Units=km normamps=235
New LineCode.1#2/0CAA_1  nphases=1 BaseFreq=60  R1=0.556  X1=0.509 Units=km normamps=220
New LineCode.1#2/0CAA_2  nphases=2 BaseFreq=60  R1=0.556  X1=0.509 Units=km normamps=220
New LineCode.1#2/0CAA_3  nphases=3 BaseFreq=60  R1=0.556  X1=0.509 Units=km normamps=220
New LineCode.2#2/0CAA_1  nphases=1 BaseFreq=60  R1=0.556  X1=0.509 Units=km normamps=220
New LineCode.2#2/0CAA_2  nphases=2 BaseFreq=60  R1=0.556  X1=0.509 Units=km normamps=220
New LineCode.2#2/0CAA_3  nphases=3 BaseFreq=60  R1=0.556  X1=0.509 Units=km normamps=220
New LineCode.3#2/0CAA_1  nphases=1 BaseFreq=60  R1=0.556  X1=0.509 Units=km normamps=220
New LineCode.3#2/0CAA_2  nphases=2 BaseFreq=60  R1=0.556  X1=0.509 Units=km normamps=220
New LineCode.3#2/0CAA_3  nphases=3 BaseFreq=60  R1=0.556  X1=0.509 Units=km normamps=220
New LineCode.3#2/0CC_1  nphases=1 BaseFreq=60  R1=0.299  X1=0.441 Units=km normamps=354
New LineCode.3#2/0CC_2  nphases=2 BaseFreq=60  R1=0.299  X1=0.441 Units=km normamps=354
New LineCode.3#2/0CC_3  nphases=3 BaseFreq=60  R1=0.299  X1=0.441 Units=km normamps=354
New LineCode.3#2CA_1  nphases=1 BaseFreq=60  R1=0.963  X1=0.467 Units=km normamps=152
New LineCode.3#2CA_2  nphases=2 BaseFreq=60  R1=0.963  X1=0.467 Units=km normamps=152
New LineCode.3#2CA_3  nphases=3 BaseFreq=60  R1=0.963  X1=0.467 Units=km normamps=152
New LineCode.3#2CAA_1  nphases=1 BaseFreq=60  R1=1.05  X1=0.524 Units=km normamps=150
New LineCode.3#2CAA_2  nphases=2 BaseFreq=60  R1=1.05  X1=0.524 Units=km normamps=150
New LineCode.3#2CAA_3  nphases=3 BaseFreq=60  R1=1.05  X1=0.524 Units=km normamps=150
New LineCode.3#2CC_1  nphases=1 BaseFreq=60  R1=0.599  X1=0.472 Units=km normamps=226
New LineCode.3#2CC_2  nphases=2 BaseFreq=60  R1=0.599  X1=0.472 Units=km normamps=226
New LineCode.3#2CC_3  nphases=3 BaseFreq=60  R1=0.599  X1=0.472 Units=km normamps=226
New LineCode.3#3/0CA_1  nphases=1 BaseFreq=60  R1=0.381  X1=0.432 Units=km normamps=271
New LineCode.3#3/0CA_2  nphases=2 BaseFreq=60  R1=0.381  X1=0.432 Units=km normamps=271
New LineCode.3#3/0CA_3  nphases=3 BaseFreq=60  R1=0.381  X1=0.432 Units=km normamps=271
New LineCode.1#3/0CAA_1  nphases=1 BaseFreq=60  R1=0.449  X1=0.497 Units=km normamps=252
New LineCode.1#3/0CAA_2  nphases=2 BaseFreq=60  R1=0.449  X1=0.497 Units=km normamps=252
New LineCode.1#3/0CAA_3  nphases=3 BaseFreq=60  R1=0.449  X1=0.497 Units=km normamps=252
New LineCode.2#3/0CAA_1  nphases=1 BaseFreq=60  R1=0.449  X1=0.497 Units=km normamps=252
New LineCode.2#3/0CAA_2  nphases=2 BaseFreq=60  R1=0.449  X1=0.497 Units=km normamps=252
New LineCode.2#3/0CAA_3  nphases=3 BaseFreq=60  R1=0.449  X1=0.497 Units=km normamps=252
New LineCode.3#3/0CAA_1  nphases=1 BaseFreq=60  R1=0.449  X1=0.497 Units=km normamps=252
New LineCode.3#3/0CAA_2  nphases=2 BaseFreq=60  R1=0.449  X1=0.497 Units=km normamps=252
New LineCode.3#3/0CAA_3  nphases=3 BaseFreq=60  R1=0.449  X1=0.497 Units=km normamps=252
New LineCode.3#336.4CA_1  nphases=1 BaseFreq=60  R1=0.191  X1=0.401 Units=km normamps=419
New LineCode.3#336.4CA_2  nphases=2 BaseFreq=60  R1=0.191  X1=0.401 Units=km normamps=419
New LineCode.3#336.4CA_3  nphases=3 BaseFreq=60  R1=0.191  X1=0.401 Units=km normamps=419
New LineCode.3#336.4CAA_1  nphases=1 BaseFreq=60  R1=0.19  X1=0.38712 Units=km normamps=410
New LineCode.3#336.4CAA_2  nphases=2 BaseFreq=60  R1=0.19  X1=0.38712 Units=km normamps=410
New LineCode.3#336.4CAA_3  nphases=3 BaseFreq=60  R1=0.19  X1=0.38712 Units=km normamps=410
New LineCode.3#336.4CACP_1  nphases=1 BaseFreq=60  R1=0.19  X1=0.38712 Units=km normamps=410
New LineCode.3#336.4CACP_2  nphases=2 BaseFreq=60  R1=0.19  X1=0.38712 Units=km normamps=410
New LineCode.3#336.4CACP_3  nphases=3 BaseFreq=60  R1=0.19  X1=0.38712 Units=km normamps=410
New LineCode.3#35XLPE_1  nphases=1 BaseFreq=60  R1=0.869  X1=0.24757 Units=km normamps=129
New LineCode.3#35XLPE_2  nphases=2 BaseFreq=60  R1=0.869  X1=0.24757 Units=km normamps=129
New LineCode.3#35XLPE_3  nphases=3 BaseFreq=60  R1=0.869  X1=0.24757 Units=km normamps=129
New LineCode.1#4/0CA_1  nphases=1 BaseFreq=60  R1=0.302  X1=0.424 Units=km normamps=314
New LineCode.1#4/0CA_2  nphases=2 BaseFreq=60  R1=0.302  X1=0.424 Units=km normamps=314
New LineCode.1#4/0CA_3  nphases=3 BaseFreq=60  R1=0.302  X1=0.424 Units=km normamps=314
New LineCode.2#4/0CA_1  nphases=1 BaseFreq=60  R1=0.302  X1=0.424 Units=km normamps=314
New LineCode.2#4/0CA_2  nphases=2 BaseFreq=60  R1=0.302  X1=0.424 Units=km normamps=314
New LineCode.2#4/0CA_3  nphases=3 BaseFreq=60  R1=0.302  X1=0.424 Units=km normamps=314
New LineCode.3#4/0CA_1  nphases=1 BaseFreq=60  R1=0.302  X1=0.424 Units=km normamps=314
New LineCode.3#4/0CA_2  nphases=2 BaseFreq=60  R1=0.302  X1=0.424 Units=km normamps=314
New LineCode.3#4/0CA_3  nphases=3 BaseFreq=60  R1=0.302  X1=0.424 Units=km normamps=314
New LineCode.1#4/0CAA_1  nphases=1 BaseFreq=60  R1=0.368  X1=0.472 Units=km normamps=282
New LineCode.1#4/0CAA_2  nphases=2 BaseFreq=60  R1=0.368  X1=0.472 Units=km normamps=282
New LineCode.1#4/0CAA_3  nphases=3 BaseFreq=60  R1=0.368  X1=0.472 Units=km normamps=282
New LineCode.2#4/0CAA_1  nphases=1 BaseFreq=60  R1=0.368  X1=0.472 Units=km normamps=282
New LineCode.2#4/0CAA_2  nphases=2 BaseFreq=60  R1=0.368  X1=0.472 Units=km normamps=282
New LineCode.2#4/0CAA_3  nphases=3 BaseFreq=60  R1=0.368  X1=0.472 Units=km normamps=282
New LineCode.3#4/0CAA_1  nphases=1 BaseFreq=60  R1=0.368  X1=0.472 Units=km normamps=282
New LineCode.3#4/0CAA_2  nphases=2 BaseFreq=60  R1=0.368  X1=0.472 Units=km normamps=282
New LineCode.3#4/0CAA_3  nphases=3 BaseFreq=60  R1=0.368  X1=0.472 Units=km normamps=282
New LineCode.3#4/0CACP_1  nphases=1 BaseFreq=60  R1=0.368  X1=0.472 Units=km normamps=282
New LineCode.3#4/0CACP_2  nphases=2 BaseFreq=60  R1=0.368  X1=0.472 Units=km normamps=282
New LineCode.3#4/0CACP_3  nphases=3 BaseFreq=60  R1=0.368  X1=0.472 Units=km normamps=282
New LineCode.3#4CA_1  nphases=1 BaseFreq=60  R1=1.529  X1=0.496 Units=km normamps=114
New LineCode.3#4CA_2  nphases=2 BaseFreq=60  R1=1.529  X1=0.496 Units=km normamps=114
New LineCode.3#4CA_3  nphases=3 BaseFreq=60  R1=1.529  X1=0.496 Units=km normamps=114
New LineCode.3#4CAA_1  nphases=1 BaseFreq=60  R1=1.597  X1=0.52 Units=km normamps=113
New LineCode.3#4CAA_2  nphases=2 BaseFreq=60  R1=1.597  X1=0.52 Units=km normamps=113
New LineCode.3#4CAA_3  nphases=3 BaseFreq=60  R1=1.597  X1=0.52 Units=km normamps=113
New LineCode.3#4CC_1  nphases=1 BaseFreq=60  R1=0.943  X1=0.489 Units=km normamps=163
New LineCode.3#4CC_2  nphases=2 BaseFreq=60  R1=0.943  X1=0.489 Units=km normamps=163
New LineCode.3#4CC_3  nphases=3 BaseFreq=60  R1=0.943  X1=0.489 Units=km normamps=163
New LineCode.3#50CACP_1  nphases=1 BaseFreq=60  R1=0.642  X1=0.24757 Units=km normamps=224
New LineCode.3#50CACP_2  nphases=2 BaseFreq=60  R1=0.642  X1=0.24757 Units=km normamps=224
New LineCode.3#50CACP_3  nphases=3 BaseFreq=60  R1=0.642  X1=0.24757 Units=km normamps=224
New LineCode.3#35CACP_1  nphases=1 BaseFreq=60  R1=0.642  X1=0.24757 Units=km normamps=224
New LineCode.3#35CACP_2  nphases=2 BaseFreq=60  R1=0.642  X1=0.24757 Units=km normamps=224
New LineCode.3#35CACP_3  nphases=3 BaseFreq=60  R1=0.642  X1=0.24757 Units=km normamps=224
New LineCode.3#50XLPE_1  nphases=1 BaseFreq=60  R1=0.869  X1=0.24757 Units=km normamps=171
New LineCode.3#50XLPE_2  nphases=2 BaseFreq=60  R1=0.869  X1=0.24757 Units=km normamps=171
New LineCode.3#50XLPE_3  nphases=3 BaseFreq=60  R1=0.869  X1=0.24757 Units=km normamps=171
New LineCode.3#70XLPE_1  nphases=1 BaseFreq=60  R1=0.571  X1=0.584610701754386 Units=km normamps=192
New LineCode.3#70XLPE_2  nphases=2 BaseFreq=60  R1=0.571  X1=0.584610701754386 Units=km normamps=192
New LineCode.3#70XLPE_3  nphases=3 BaseFreq=60  R1=0.571  X1=0.584610701754386 Units=km normamps=192
New LineCode.1#95XLPE_1  nphases=1 BaseFreq=60  R1=0.322  X1=0.2263 Units=km normamps=343
New LineCode.1#95XLPE_2  nphases=2 BaseFreq=60  R1=0.322  X1=0.2263 Units=km normamps=343
New LineCode.1#95XLPE_3  nphases=3 BaseFreq=60  R1=0.322  X1=0.2263 Units=km normamps=343
New LineCode.2#95XLPE_1  nphases=1 BaseFreq=60  R1=0.322  X1=0.2263 Units=km normamps=343
New LineCode.2#95XLPE_2  nphases=2 BaseFreq=60  R1=0.322  X1=0.2263 Units=km normamps=343
New LineCode.2#95XLPE_3  nphases=3 BaseFreq=60  R1=0.322  X1=0.2263 Units=km normamps=343
New LineCode.3#95XLPE_1  nphases=1 BaseFreq=60  R1=0.322  X1=0.2263 Units=km normamps=343
New LineCode.3#95XLPE_2  nphases=2 BaseFreq=60  R1=0.322  X1=0.2263 Units=km normamps=343
New LineCode.3#95XLPE_3  nphases=3 BaseFreq=60  R1=0.322  X1=0.2263 Units=km normamps=343
New LineCode.3#150XLPE_1  nphases=1 BaseFreq=60  R1=0.2571  X1=0.258486 Units=km normamps=192
New LineCode.3#150XLPE_2  nphases=2 BaseFreq=60  R1=0.2571  X1=0.258486 Units=km normamps=192
New LineCode.3#150XLPE_3  nphases=3 BaseFreq=60  R1=0.2571  X1=0.258486 Units=km normamps=192
New LineCode.3#185XLPE_1  nphases=1 BaseFreq=60  R1=0.2571  X1=0.258486 Units=km normamps=192
New LineCode.3#185XLPE_2  nphases=2 BaseFreq=60  R1=0.2571  X1=0.258486 Units=km normamps=192
New LineCode.3#185XLPE_3  nphases=3 BaseFreq=60  R1=0.2571  X1=0.258486 Units=km normamps=192
New LineCode.3#400XLPE_1  nphases=1 BaseFreq=60  R1=0.08571  X1=0.0858486 Units=km normamps=192
New LineCode.3#400XLPE_2  nphases=2 BaseFreq=60  R1=0.08571  X1=0.0858486 Units=km normamps=192
New LineCode.3#400XLPE_3  nphases=3 BaseFreq=60  R1=0.08571  X1=0.0858486 Units=km normamps=192
New LineCode.3#6CA_1  nphases=1 BaseFreq=60  R1=2.43  X1=0.502 Units=km normamps=80
New LineCode.3#6CA_2  nphases=2 BaseFreq=60  R1=2.43  X1=0.502 Units=km normamps=80
New LineCode.3#6CA_3  nphases=3 BaseFreq=60  R1=2.43  X1=0.502 Units=km normamps=80
New LineCode.3#6CAA_1  nphases=1 BaseFreq=60  R1=2.474  X1=0.529 Units=km normamps=80
New LineCode.3#6CAA_2  nphases=2 BaseFreq=60  R1=2.474  X1=0.529 Units=km normamps=80
New LineCode.3#6CAA_3  nphases=3 BaseFreq=60  R1=2.474  X1=0.529 Units=km normamps=80
New LineCode.3#5CBAL_1  nphases=1 BaseFreq=60  R1=0.943  X1=1.009 Units=km normamps=163
New LineCode.3#5CBAL_2  nphases=2 BaseFreq=60  R1=0.943  X1=1.009 Units=km normamps=163
New LineCode.3#5CBAL_3  nphases=3 BaseFreq=60  R1=0.943  X1=1.009 Units=km normamps=163
New LineCode.3#6CC_1  nphases=1 BaseFreq=60  R1=1.498  X1=0.506 Units=km normamps=121
New LineCode.3#6CC_2  nphases=2 BaseFreq=60  R1=1.498  X1=0.506 Units=km normamps=121
New LineCode.3#6CC_3  nphases=3 BaseFreq=60  R1=1.498  X1=0.506 Units=km normamps=121
New LineCode.3#70CACP_1  nphases=1 BaseFreq=60  R1=0.444  X1=0.23405 Units=km normamps=280
New LineCode.3#70CACP_2  nphases=2 BaseFreq=60  R1=0.444  X1=0.23405 Units=km normamps=280
New LineCode.3#70CACP_3  nphases=3 BaseFreq=60  R1=0.444  X1=0.23405 Units=km normamps=280
New LineCode.3#70XLPE_1  nphases=1 BaseFreq=60  R1=0.571  X1=0.584610701754386 Units=km normamps=192
New LineCode.3#70XLPE_2  nphases=2 BaseFreq=60  R1=0.571  X1=0.584610701754386 Units=km normamps=192
New LineCode.3#70XLPE_3  nphases=3 BaseFreq=60  R1=0.571  X1=0.584610701754386 Units=km normamps=192
New LineCode.3#8CC_1  nphases=1 BaseFreq=60  R1=2.362  X1=0.524 Units=km normamps=72
New LineCode.3#8CC_2  nphases=2 BaseFreq=60  R1=2.362  X1=0.524 Units=km normamps=72
New LineCode.3#8CC_3  nphases=3 BaseFreq=60  R1=2.362  X1=0.524 Units=km normamps=72
New LineCode.3#95CACP_1  nphases=1 BaseFreq=60  R1=0.322  X1=0.2263 Units=km normamps=343
New LineCode.3#95CACP_2  nphases=2 BaseFreq=60  R1=0.322  X1=0.2263 Units=km normamps=343
New LineCode.3#95CACP_3  nphases=3 BaseFreq=60  R1=0.322  X1=0.2263 Units=km normamps=343
New LineCode.3#C11.9CAZ_1  nphases=1 BaseFreq=60  R1=16.07  X1=0.81 Units=km normamps=6
New LineCode.3#C11.9CAZ_2  nphases=2 BaseFreq=60  R1=16.07  X1=0.81 Units=km normamps=6
New LineCode.3#C11.9CAZ_3  nphases=3 BaseFreq=60  R1=16.07  X1=0.81 Units=km normamps=6
New LineCode.3#F3.09CAZ_1  nphases=1 BaseFreq=60  R1=25.54  X1=0.81 Units=km normamps=6
New LineCode.3#F3.09CAZ_2  nphases=2 BaseFreq=60  R1=25.54  X1=0.81 Units=km normamps=6
New LineCode.3#F3.09CAZ_3  nphases=3 BaseFreq=60  R1=25.54  X1=0.81 Units=km normamps=6
New LineCode.3#300CA_1  nphases=1 BaseFreq=60  R1=0.16638  X1=0.6991 Units=km normamps=850
New LineCode.3#300CA_2  nphases=2 BaseFreq=60  R1=0.16638  X1=0.6991 Units=km normamps=850
New LineCode.3#300CA_3  nphases=3 BaseFreq=60  R1=0.16638  X1=0.6991 Units=km normamps=850
New LineCode.3#750CA_1  nphases=1 BaseFreq=60  R1=0.08638  X1=0.36991 Units=km normamps=850
New LineCode.3#750CA_2  nphases=2 BaseFreq=60  R1=0.08638  X1=0.36991 Units=km normamps=850
New LineCode.3#750CA_3  nphases=3 BaseFreq=60  R1=0.08638  X1=0.36991 Units=km normamps=850
New LineCode.1#1/0CA_1  nphases=1 BaseFreq=60  R1=0.605  X1=0.968 Units=km normamps=203
New LineCode.1#1/0CA_2  nphases=2 BaseFreq=60  R1=0.605  X1=0.968 Units=km normamps=203
New LineCode.1#1/0CA_3  nphases=3 BaseFreq=60  R1=0.605  X1=0.968 Units=km normamps=203
New LineCode.3#16PE_1  nphases=1 BaseFreq=60  R1=1.91  X1=0.584610701754386 Units=km normamps=59
New LineCode.3#16PE_2  nphases=2 BaseFreq=60  R1=1.91  X1=0.584610701754386 Units=km normamps=59
New LineCode.3#16PE_3  nphases=3 BaseFreq=60  R1=1.91  X1=0.584610701754386 Units=km normamps=59
New LineCode.1#16PE_1  nphases=1 BaseFreq=60  R1=1.91  X1=0.584610701754386 Units=km normamps=59
New LineCode.1#16PE_2  nphases=2 BaseFreq=60  R1=1.91  X1=0.584610701754386 Units=km normamps=59
New LineCode.1#16PE_3  nphases=3 BaseFreq=60  R1=1.91  X1=0.584610701754386 Units=km normamps=59
New LineCode.2#16PE_1  nphases=1 BaseFreq=60  R1=1.91  X1=0.584610701754386 Units=km normamps=59
New LineCode.2#16PE_2  nphases=2 BaseFreq=60  R1=1.91  X1=0.584610701754386 Units=km normamps=59
New LineCode.2#16PE_3  nphases=3 BaseFreq=60  R1=1.91  X1=0.584610701754386 Units=km normamps=59
New LineCode.1#10PE_1  nphases=1 BaseFreq=60  R1=3.08  X1=0.584610701754386 Units=km normamps=44
New LineCode.1#10PE_2  nphases=2 BaseFreq=60  R1=3.08  X1=0.584610701754386 Units=km normamps=44
New LineCode.1#10PE_3  nphases=3 BaseFreq=60  R1=3.08  X1=0.584610701754386 Units=km normamps=44
New LineCode.2#10PE_1  nphases=1 BaseFreq=60  R1=3.08  X1=0.584610701754386 Units=km normamps=44
New LineCode.2#10PE_2  nphases=2 BaseFreq=60  R1=3.08  X1=0.584610701754386 Units=km normamps=44
New LineCode.2#10PE_3  nphases=3 BaseFreq=60  R1=3.08  X1=0.584610701754386 Units=km normamps=44
New LineCode.3#10PE_1  nphases=1 BaseFreq=60  R1=3.08  X1=0.584610701754386 Units=km normamps=44
New LineCode.3#10PE_2  nphases=2 BaseFreq=60  R1=3.08  X1=0.584610701754386 Units=km normamps=44
New LineCode.3#10PE_3  nphases=3 BaseFreq=60  R1=3.08  X1=0.584610701754386 Units=km normamps=44
New LineCode.3#25PE_1  nphases=1 BaseFreq=60  R1=3.08  X1=0.584610701754386 Units=km normamps=44
New LineCode.3#25PE_2  nphases=2 BaseFreq=60  R1=3.08  X1=0.584610701754386 Units=km normamps=44
New LineCode.3#25PE_3  nphases=3 BaseFreq=60  R1=3.08  X1=0.584610701754386 Units=km normamps=44
New LineCode.2#25PE_1  nphases=1 BaseFreq=60  R1=3.08  X1=0.584610701754386 Units=km normamps=44
New LineCode.2#25PE_2  nphases=2 BaseFreq=60  R1=3.08  X1=0.584610701754386 Units=km normamps=44
New LineCode.2#25PE_3  nphases=3 BaseFreq=60  R1=3.08  X1=0.584610701754386 Units=km normamps=44
New LineCode.1#25PE_1  nphases=1 BaseFreq=60  R1=3.08  X1=0.584610701754386 Units=km normamps=44
New LineCode.1#25PE_2  nphases=2 BaseFreq=60  R1=3.08  X1=0.584610701754386 Units=km normamps=44
New LineCode.1#25PE_3  nphases=3 BaseFreq=60  R1=3.08  X1=0.584610701754386 Units=km normamps=44
New LineCode.CapSerie_1  nphases=1 BaseFreq=60  R1=0  X1=-35000 Units=km normamps=220
New LineCode.CapSerie_2  nphases=2 BaseFreq=60  R1=0  X1=-35000 Units=km normamps=220
New LineCode.CapSerie_3  nphases=3 BaseFreq=60  R1=0  X1=-35000 Units=km normamps=220
New LineCode.2#10XLPE_1  nphases=1 BaseFreq=60  R1=3.08  X1=0.584610701754386 Units=km normamps=44
New LineCode.2#10XLPE_2  nphases=2 BaseFreq=60  R1=3.08  X1=0.584610701754386 Units=km normamps=44
New LineCode.2#10XLPE_3  nphases=3 BaseFreq=60  R1=3.08  X1=0.584610701754386 Units=km normamps=44
New LineCode.3#10XLPE_1  nphases=1 BaseFreq=60  R1=3.08  X1=0.584610701754386 Units=km normamps=44
New LineCode.3#10XLPE_2  nphases=2 BaseFreq=60  R1=3.08  X1=0.584610701754386 Units=km normamps=44
New LineCode.3#10XLPE_3  nphases=3 BaseFreq=60  R1=3.08  X1=0.584610701754386 Units=km normamps=44
New LineCode.Z99C_1  nphases=1 BaseFreq=60  R1=0.001  X1=0.001 Units=km normamps=0
New LineCode.Z99C_2  nphases=2 BaseFreq=60  R1=0.001  X1=0.001 Units=km normamps=0
New LineCode.Z99C_3  nphases=3 BaseFreq=60  R1=0.001  X1=0.001 Units=km normamps=0
New LineCode.1#10CCON_1  nphases=1 BaseFreq=60  R1=2.362  X1=0.524 Units=km normamps=72
New LineCode.1#10CCON_2  nphases=2 BaseFreq=60  R1=2.362  X1=0.524 Units=km normamps=72
New LineCode.1#10CCON_3  nphases=3 BaseFreq=60  R1=2.362  X1=0.524 Units=km normamps=72
New LineCode.3#240CCEPR_1  nphases=1 BaseFreq=60  R1=0.1  X1=0.1 Units=km normamps=190
New LineCode.3#240CCEPR_2  nphases=2 BaseFreq=60  R1=0.1  X1=0.1 Units=km normamps=190
New LineCode.3#240CCEPR_3  nphases=3 BaseFreq=60  R1=0.1  X1=0.1 Units=km normamps=190
